Circuit: * C:\Users\aalon\OneDrive\Documents\_Repositorio\LTSpice_Circuitos\Divisor de tensión con potenciómetro.asc

Direct Newton iteration for .op point succeeded.

Date: Mon Dec 18 14:09:21 2023
Total elapsed time: 0.663 seconds.

tnom = 27
temp = 27
method = trap
totiter = 3
traniter = 0
tranpoints = 0
accept = 0
rejected = 0
matrix size = 3
fillins = 0
solver = Normal
Avg thread counts: 8.0/0.0/8.0/8.0
Matrix Compiler1: 104 bytes object code size
Matrix Compiler2: 163 bytes object code size
