Circuit: * C:\Users\aalon\OneDrive\Documents\_Repositorio\LTSpice_Circuitos\Carga condensador.asc

.OP point found by inspection.

Date: Sun Dec 17 23:21:55 2023
Total elapsed time: 0.117 seconds.

tnom = 27
temp = 27
method = modified trap
totiter = 2354
traniter = 2354
tranpoints = 1178
accept = 1170
rejected = 8
matrix size = 3
fillins = 0
solver = Normal
Avg thread counts: 2.2/3.3/3.3/2.2
Matrix Compiler1: off  [0.1]/0.2/0.3
Matrix Compiler2: off  [0.1]/0.2/0.2

