Circuit: * C:\Users\aalon\OneDrive\Documents\_Repositorio\LTSpice_Circuitos\Carga condensador.asc

.OP point found by inspection.

Date: Mon Dec 18 09:22:30 2023
Total elapsed time: 0.083 seconds.

tnom = 27
temp = 27
method = modified trap
totiter = 2174
traniter = 2174
tranpoints = 1088
accept = 1086
rejected = 2
matrix size = 3
fillins = 0
solver = Normal
Avg thread counts: 2.3/3.5/3.5/2.3
Matrix Compiler1:       3 opcodes  0.1/[0.1]/0.2
Matrix Compiler2: off  [0.1]/0.1/0.1

