Circuit: * C:\Users\aalon\OneDrive\Documents\_Repositorio\LTSpice_Circuitos\Carga bobina.asc

.OP point found by inspection.

Date: Sun Dec 17 23:49:51 2023
Total elapsed time: 0.125 seconds.

tnom = 27
temp = 27
method = modified trap
totiter = 3180
traniter = 3180
tranpoints = 1555
accept = 1458
rejected = 97
matrix size = 5
fillins = 0
solver = Normal
Avg thread counts: 1.9/2.8/2.7/1.9
Matrix Compiler1: off  [0.2]/0.2/0.3
Matrix Compiler2: off  [0.1]/0.2/0.2

