Circuit: * C:\Users\aalon\OneDrive\Documents\_Repositorio\LTSpice_Circuitos\Condensador en AC.asc

.OP point found by inspection.

Date: Mon Dec 18 09:18:11 2023
Total elapsed time: 0.056 seconds.

tnom = 27
temp = 27
method = trap
totiter = 0
traniter = 0
tranpoints = 0
accept = 0
rejected = 0
matrix size = 3
fillins = 0
solver = Normal
Avg thread counts: 8.0/0.0/0.0/3.1
Matrix Compiler1:       4 opcodes
Matrix Compiler2:      15 opcodes
