Circuit: * C:\Users\aalon\OneDrive\Documents\_Repositorio\LTSpice_Circuitos\Draft1.asc

.OP point found by inspection.

Date: Mon Dec 18 09:55:25 2023
Total elapsed time: 0.092 seconds.

tnom = 27
temp = 27
method = modified trap
totiter = 2464
traniter = 2464
tranpoints = 1233
accept = 1125
rejected = 108
matrix size = 4
fillins = 0
solver = Normal
Avg thread counts: 2.1/3.2/3.2/2.1
Matrix Compiler1:       6 opcodes  0.1/[0.1]/0.1
Matrix Compiler2: off  [0.0]/0.1/0.1

