Circuit: * C:\Users\aalon\OneDrive\Documents\LTspice\potentiometer_standard_test.asc

WARNING: Less than two connections to node n002.  This node is used by v0.
Direct Newton iteration for .op point succeeded.

Date: Mon Dec 18 13:54:47 2023
Total elapsed time: 0.647 seconds.

tnom = 27
temp = 27
method = trap
totiter = 3
traniter = 0
tranpoints = 0
accept = 0
rejected = 0
matrix size = 23
fillins = 0
solver = Normal
Avg thread counts: 8.0/0.0/8.0/8.0
Matrix Compiler1: 708 bytes object code size
Matrix Compiler2: 1.17 KB object code size
