Circuit: * C:\Users\aalon\OneDrive\Documents\_Repositorio\Circuitos_electronicos\Circuitos\Filtro Sallen Key [LTSpice]\Draft2.asc

