Circuit: * C:\Users\aalon\OneDrive\Documents\_Repositorio\Circuitos_electronicos\Circuitos\Filtro Sallen Key [LTSpice]\Filtro Sallen Key.asc

Direct Newton iteration for .op point succeeded.

Date: Tue Dec 26 22:10:02 2023
Total elapsed time: 0.042 seconds.

tnom = 27
temp = 27
method = trap
totiter = 3
traniter = 0
tranpoints = 0
accept = 0
rejected = 0
matrix size = 7
fillins = 1
solver = Normal
Avg thread counts: 8.0/0.0/8.0/6.2
Matrix Compiler1:      27 opcodes
Matrix Compiler2: 569 bytes object code size
