Circuit: * C:\Users\aalon\OneDrive\Documents\_Repositorio\LTSpice_Pruebas\RLC.asc

.OP point found by inspection.

Date: Mon Dec 18 23:25:36 2023
Total elapsed time: 0.082 seconds.

tnom = 27
temp = 27
method = modified trap
totiter = 2128
traniter = 2128
tranpoints = 1065
accept = 1063
rejected = 2
matrix size = 4
fillins = 0
solver = Normal
Avg thread counts: 2.3/3.6/3.6/2.3
Matrix Compiler1:       6 opcodes  0.1/[0.1]/0.1
Matrix Compiler2: off  [0.0]/0.0/0.1

