Circuit: * C:\Users\aalon\OneDrive\Documents\_Repositorio\Circuitos_electronicos\Circuitos\Filtro RC paso bajo [LTSpice]\Filtro RC paso bajo.asc

.OP point found by inspection.

Date: Sun Dec 24 17:04:05 2023
Total elapsed time: 0.041 seconds.

tnom = 27
temp = 27
method = trap
totiter = 0
traniter = 0
tranpoints = 0
accept = 0
rejected = 0
matrix size = 3
fillins = 0
solver = Normal
Avg thread counts: 8.0/0.0/0.0/5.1
Matrix Compiler1:       4 opcodes
Matrix Compiler2:      15 opcodes
