Circuit: * C:\Users\aalon\OneDrive\Documents\_Repositorio\Circuitos_electronicos\Circuitos\Filtro RC paso banda.asc

.OP point found by inspection.

Date: Sun Dec 24 17:11:57 2023
Total elapsed time: 0.036 seconds.

tnom = 27
temp = 27
method = trap
totiter = 0
traniter = 0
tranpoints = 0
accept = 0
rejected = 0
matrix size = 4
fillins = 0
solver = Normal
Avg thread counts: 8.0/0.0/0.0/4.0
Matrix Compiler1:       7 opcodes
Matrix Compiler2:      21 opcodes
